ieee33-dg-voltage-regulation/results/S3_Strategy1_Losses.csv
Element,  Total(W), Total(var),  I2R(W), I2X(var), No-load(W), No-load(var)
Transformer.SUBTRANS, 19839.92, 107438.6, 9400.407, 107438.6, 10439.51, 0
Line.L1, 3837.885, 1777.973, 3837.885, 1777.973, 0, 0
Line.L2, 16887.26, 8424.447, 16887.26, 8424.447, 0, 0
Line.L3, 4815.025, 2277.522, 4815.025, 2277.522, 0, 0
Line.L4, 4077.211, 1903.09, 4077.211, 1903.09, 0, 0
Line.L5, 7909.461, 6656.36, 7909.461, 6656.36, 0, 0
Line.L6, 153.5732, 337.8508, 153.5732, 337.8508, 0, 0
Line.L7, 523.4359, 3.319533, 523.4359, 3.319533, 0, 0
Line.L8, 1319.954, 778.2119, 1319.954, 778.2119, 0, 0
Line.L9, 1654.842, 1002.1, 1654.842, 1002.1, 0, 0
Line.L10, 106.7161, -136.0567, 106.7161, -136.0567, 0, 0
Line.L11, 234.5018, -93.9276, 234.5018, -93.9276, 0, 0
Line.L12, 1176.04, 753.335, 1176.04, 753.335, 0, 0
Line.L13, 561.1074, 566.0546, 561.1074, 566.0546, 0, 0
Line.L14, 995.6, 713.0736, 995.6, 713.0736, 0, 0
Line.L15, 1563.015, 967.5904, 1563.015, 967.5904, 0, 0
Line.L16, 3289.569, 4216.786, 3289.569, 4216.786, 0, 0
Line.L17, 2237.426, 1577.676, 2237.426, 1577.676, 0, 0
Line.L18, 18.15733, -160.7849, 18.15733, -160.7849, 0, 0
Line.L19, 44.854, -137.5773, 44.854, -137.5773, 0, 0
Line.L20, 26.70334, -146.7409, 26.70334, -146.7409, 0, 0
Line.L21, 153.7549, 25.17366, 153.7549, 25.17366, 0, 0
Line.L22, 1796.016, 1052.315, 1796.016, 1052.315, 0, 0
Line.L23, 2720.966, 1975.031, 2720.966, 1975.031, 0, 0
Line.L24, 322.3058, 79.7773, 322.3058, 79.7773, 0, 0
Line.L25, 1306.974, 495.9372, 1306.974, 495.9372, 0, 0
Line.L26, 1602.257, 646.5705, 1602.257, 646.5705, 0, 0
Line.L27, 5177.473, 4397.231, 5177.473, 4397.231, 0, 0
Line.L28, 3384.348, 2782.837, 3384.348, 2782.837, 0, 0
Line.L29, 1469.704, 584.3561, 1469.704, 584.3561, 0, 0
Line.L30, 1974.987, 1788.098, 1974.987, 1788.098, 0, 0
Line.L31, 532.1795, 456.4794, 532.1795, 456.4794, 0, 0
Line.L32, 645.2896, 839.1645, 645.2896, 839.1645, 0, 0
Capacitor.CAP33, -9.094947E-13, -576312.2, -9.094947E-13, -576312.2, 0, 0
